Version 4
SHEET 1 880 680
WIRE 176 -240 32 -240
WIRE 384 -240 256 -240
WIRE 32 -176 32 -240
WIRE -192 -96 -256 -96
WIRE -16 -96 -112 -96
WIRE -256 -32 -256 -96
WIRE 384 -16 384 -240
WIRE -256 64 -256 48
WIRE 32 64 32 -80
WIRE 32 64 -256 64
WIRE 112 64 32 64
WIRE 384 64 112 64
WIRE 112 128 112 64
FLAG 112 128 0
SYMBOL res -96 -112 R90
WINDOW 0 0 56 VBottom 2
WINDOW 3 32 56 VTop 2
SYMATTR InstName R2
SYMATTR Value 220
SYMBOL res 272 -256 R90
WINDOW 0 0 56 VBottom 2
WINDOW 3 32 56 VTop 2
SYMATTR InstName R1
SYMATTR Value 10
SYMBOL nmos -16 -176 R0
SYMATTR InstName M1
SYMBOL voltage -256 -48 R0
WINDOW 3 27 80 Left 2
WINDOW 123 0 0 Left 0
WINDOW 39 0 0 Left 0
SYMATTR Value 10V
SYMATTR InstName VGS
SYMBOL voltage 384 -32 R0
WINDOW 123 0 0 Left 0
WINDOW 39 0 0 Left 0
SYMATTR InstName VDS
SYMATTR Value 30
TEXT -208 -208 Left 2 !.dc VDS 0 30 0.1 VGS 0 10 2
